1
2
.dc V2 0 13 100m
4
1
+5V Charge
V
1
+5V USB Host
V
1
PD Sense
V
1
Switch
V
