1
9
.tran 100m 500
4
1
/On
V
1
/Vcc
V
1
In
V
1
Out
V
